Version 4
SHEET 1 3460 908
WIRE 240 48 -16 48
WIRE -16 80 -16 48
WIRE 240 128 240 48
WIRE 240 272 240 208
WIRE 240 432 240 352
FLAG -16 160 0
FLAG 240 432 0
SYMBOL voltage -16 64 R0
WINDOW 0 -32 56 VBottom 2
WINDOW 3 32 56 VTop 2
WINDOW 123 0 0 Left 0
WINDOW 39 0 0 Left 0
SYMATTR InstName V1
SYMATTR Value 1
SYMBOL res 224 256 R0
SYMATTR InstName R2
SYMATTR Value 1k
SYMBOL TwoTerminal 240 128 R90
SYMATTR InstName U1
SYMATTR Value 1N4148
TEXT -152 256 Left 2 !.dc V1 -4 4 0.01
TEXT -152 304 Left 2 !.include 1n4148.lib
